4
# Step: 0 Box:    8.0000    8.0000    8.0000 
H         1.779158535     0.251089940     0.610056495     0.000021268    -0.000002074    -0.000005754
H         2.685915430     0.308910808     1.256954954    -0.000000971     0.000003415    -0.000001070
H         3.156605739    -0.491822723     0.661268093    -0.000004383     0.000030454    -0.000021483
H         2.308999265    -0.663694021     0.205377241    -0.000004285     0.000007166     0.000004294
4
# Step: 1 Box:    8.0000    8.0000    8.0000 
H         2.002977490     0.298947518     0.570751271     0.000003443     0.000012049    -0.000009845
H         2.664994528     0.238481290     1.182059304     0.000008993    -0.000003673     0.000006464
H         3.120097925    -0.121561897     0.500478437    -0.000006507     0.000025970    -0.000016947
H         2.253526752    -0.639771804     0.251331108     0.000003294    -0.000003444     0.000001283
4
# Step: 2 Box:    8.0000    8.0000    8.0000 
H         1.824997485     0.551519608     0.612972499    -0.000012819     0.000023125     0.000009056
H         2.721116336     0.269265525     1.149371460    -0.000000268     0.000013127     0.000003799
H         3.160002353    -0.063776448     0.350449417    -0.000002631    -0.000005372    -0.000018310
H         2.425310059    -0.679954884     0.206335584     0.000023274    -0.000005567    -0.000010146
4
# Step: 3 Box:    8.0000    8.0000    8.0000 
H         1.874851369     0.705776302     0.686665449     0.000010977     0.000008866     0.000000025
H         2.650387115     0.362636345     1.142376439     0.000002630     0.000000185    -0.000010314
H         3.135679071     0.062045785     0.190758112    -0.000012750     0.000024235     0.000000248
H         2.545212426    -0.803122342     0.145071405     0.000005569    -0.000011757    -0.000003228
