4
# Step: 0 Box:    8.0000    8.0000    8.0000 
H         1.818944034     0.781108021     0.657046916    -0.000008359    -0.000001336    -0.000004875
H         2.164494083     0.040221237     1.267536434    -0.000003665    -0.000016411     0.000002253
H         2.639437580    -0.423029788     0.453850276    -0.000003439     0.000009381     0.000028042
H         1.776145207    -0.500530643     0.072138549    -0.000007179    -0.000009495     0.000008152
4
# Step: 1 Box:    8.0000    8.0000    8.0000 
H         1.781637469     0.686458494     0.676530153    -0.000002718    -0.000011938     0.000008838
H         2.060276636     0.004384691     1.327860442    -0.000019785     0.000011145     0.000010897
H         2.610045387    -0.352638607     0.656707875    -0.000002117    -0.000005826     0.000001130
H         1.721385443    -0.618458829     0.124090508     0.000004764    -0.000009044     0.000008576
