4
# Step: 0 Box:    8.0000    8.0000    8.0000 
H         1.924137195     0.752280660     0.544154232     0.000000431     0.000012830    -0.000005748
H         2.670535478     0.210792899     0.961975784     0.000001884    -0.000008477    -0.000009045
H         2.824452427    -0.192553918     0.111139089    -0.000023761    -0.000014680     0.000004055
H         1.815841488    -0.365895791    -0.053170841     0.000002629    -0.000012079    -0.000007197
4
# Step: 1 Box:    8.0000    8.0000    8.0000 
H         1.981692917     0.858641720     0.467314870     0.000009563     0.000005190    -0.000010574
H         2.549002832     0.138228970     0.951976235    -0.000000976    -0.000007684     0.000000236
H         2.727209385    -0.337797342     0.001583933    -0.000016150     0.000000346     0.000002344
H         1.790201881    -0.476949131    -0.034877769    -0.000008805    -0.000017343    -0.000007607
4
# Step: 2 Box:    8.0000    8.0000    8.0000 
H         2.109600726     0.868952664     0.404591927     0.000011508    -0.000001319    -0.000010910
H         2.451188946     0.085232971     0.876257393    -0.000012206    -0.000004986     0.000007081
H         2.687852363    -0.329131201     0.021951172    -0.000007387    -0.000001912    -0.000010932
H         1.637400405    -0.635905657    -0.071271425    -0.000006211    -0.000008806     0.000001135
