4
# Step: 0 Box:    8.0000    8.0000    8.0000 
H         2.121271204     0.848616990     0.731244543     0.000003127     0.000004382    -0.000009163
H         3.055983310     0.477294628     0.815713967     0.000013260    -0.000005630    -0.000008662
H         2.969769467    -0.012024223    -0.052283824     0.000002758     0.000015143    -0.000013303
H         2.082246971    -0.257195484     0.060124885     0.000001098     0.000002074     0.000001113
4
# Step: 1 Box:    8.0000    8.0000    8.0000 
H         2.218831023     0.890146234     0.628306422     0.000015136     0.000005196    -0.000002790
H         3.121836615     0.423657826     0.728382773     0.000006652     0.000002546    -0.000017680
H         3.002637920     0.156116888    -0.180036174    -0.000012406     0.000009232     0.000007881
H         2.083701821    -0.257241634     0.084955874     0.000007951    -0.000003300    -0.000013112
4
# Step: 2 Box:    8.0000    8.0000    8.0000 
H         2.336272010     1.007593640     0.655318423     0.000001556     0.000015680    -0.000000877
H         3.139068206     0.447075815     0.674271546     0.000017846    -0.000000202     0.000003027
H         2.951246259     0.189106012    -0.331953052    -0.000007624     0.000004048    -0.000013908
H         2.176345800    -0.292315110     0.003122018     0.000003733    -0.000007289    -0.000011239
