4
# Step: 0 Box:    8.0000    8.0000    8.0000 
H         1.846645479     0.178150863     0.682962746     0.000022401    -0.000020582     0.000000811
H         2.639728290     0.255371804     1.241934356    -0.000010587    -0.000001265     0.000002544
H         3.027142966    -0.613408253     0.829889306    -0.000011744    -0.000012177     0.000014389
H         2.318691826    -0.745531724     0.182208223    -0.000009937     0.000000967     0.000002631
4
# Step: 1 Box:    8.0000    8.0000    8.0000 
H         1.925562897     0.019710811     0.579203112    -0.000004810    -0.000004832    -0.000015666
H         2.638764582     0.125688303     1.297075963     0.000007457    -0.000018440     0.000009169
H         2.959260259    -0.678082135     0.996639688    -0.000009821    -0.000001353     0.000009572
H         2.211547639    -0.717954545     0.264528502    -0.000001159    -0.000003292     0.000014131
4
# Step: 2 Box:    8.0000    8.0000    8.0000 
H         1.943209387     0.065015203     0.505019062     0.000009368     0.000008739     0.000000801
H         2.553887238     0.049133264     1.363026296    -0.000009183    -0.000000337     0.000010583
H         2.926529262    -0.815391272     1.010148333    -0.000006945    -0.000006612    -0.000002936
H         2.227945823    -0.829354641     0.431809539    -0.000000548    -0.000026274     0.000006642
4
# Step: 3 Box:    8.0000    8.0000    8.0000 
H         2.082156279     0.195184831     0.528079374     0.000017134     0.000007766    -0.000004495
H         2.425752719    -0.018408221     1.439456047    -0.000013838    -0.000006125     0.000017499
H         2.957432496    -0.805608748     1.044556893    -0.000001196     0.000003207    -0.000008033
H         2.115941542    -1.137250529     0.443054498    -0.000008014    -0.000024662     0.000007241
4
# Step: 4 Box:    8.0000    8.0000    8.0000 
H         2.213030427     0.346646724     0.546714807     0.000011403     0.000012056     0.000002683
H         2.287713879    -0.197609358     1.395040800    -0.000009944    -0.000014034    -0.000003577
H         2.891725318    -0.826804529     0.999194722    -0.000014260    -0.000002445    -0.000006142
H         2.130883952    -1.282394167     0.633818734     0.000007892    -0.000012022     0.000017173
