4
# Step: 0 Box:    8.0000    8.0000    8.0000 
H         1.385232400     1.039514182     0.307339310    -0.000008161    -0.000015732     0.000005295
H         1.358748069     0.134788704     0.870754856    -0.000018464     0.000011819     0.000011962
H         2.111760887    -0.300385582     0.302147514     0.000002758    -0.000001533     0.000000868
H         1.533725432    -0.231027656    -0.483735832     0.000004348    -0.000009952     0.000010817
4
# Step: 1 Box:    8.0000    8.0000    8.0000 
H         1.312501230     0.890289682     0.353250413    -0.000005726    -0.000002042    -0.000003503
H         1.287442753     0.164239344     0.908098098    -0.000003651    -0.000012416     0.000001283
H         2.063942729    -0.230733819     0.462341088    -0.000002104     0.000007898     0.000021777
H         1.528324328    -0.336515170    -0.434700741    -0.000006015    -0.000007243     0.000006386
