4
# Step: 0 Box:    8.0000    8.0000    8.0000 
H         1.168318068     0.970341719     0.229130841    -0.000014798     0.000009571    -0.000008566
H         1.117528309     0.111629702     0.825759135    -0.000006140    -0.000003103    -0.000007723
H         1.953543481    -0.250211553     0.452576206    -0.000015918    -0.000001610     0.000003838
H         1.490447591    -0.256276796    -0.394663188    -0.000001224     0.000004811    -0.000006635
