4
# Step: 0 Box:    8.0000    8.0000    8.0000 
H         1.936463323     0.271980547     0.633358664     0.000021268    -0.000002074    -0.000005754
H         2.703417913     0.356080713     1.135126539    -0.000000971     0.000003415    -0.000001070
H         3.133123904    -0.193907834     0.524560493    -0.000004383     0.000030454    -0.000021483
H         2.287877741    -0.593436061     0.171753868    -0.000004285     0.000007166     0.000004294
4
# Step: 1 Box:    8.0000    8.0000    8.0000 
H         1.885179871     0.369155548     0.570249698    -0.000020169     0.000018829     0.000002700
H         2.786824406     0.360890019     1.119496798     0.000018580     0.000003674    -0.000009461
H         3.172031903     0.033674910     0.331823719    -0.000009315     0.000010620    -0.000005486
H         2.330546537    -0.542071020     0.208447841     0.000020540    -0.000000837    -0.000007652
4
# Step: 2 Box:    8.0000    8.0000    8.0000 
H         1.837653285     0.578016402     0.670486393     0.000008754     0.000015399     0.000002496
H         2.745370629     0.436348742     1.090048709    -0.000003864     0.000012598     0.000011192
H         3.155325386     0.120636450     0.137619275    -0.000012099     0.000011768    -0.000019627
H         2.530167247    -0.598642709     0.137897469     0.000015118    -0.000013269    -0.000010392
4
# Step: 3 Box:    8.0000    8.0000    8.0000 
H         1.875451527     0.745145928     0.712486427    -0.000002411     0.000014090    -0.000002023
H         2.769729473     0.449638164     0.995825716     0.000009361    -0.000008375    -0.000006522
H         3.055814039     0.322535725     0.080811549    -0.000011721     0.000012697    -0.000007671
H         2.645576657    -0.719450335     0.085750208     0.000011512     0.000004172     0.000002297
