4
# Step: 0 Box:    8.0000    8.0000    8.0000 
H         1.989968105     0.197234599     0.715589428     0.000012356     0.000001922    -0.000000163
H         2.937171268     0.362615833     1.135721317     0.000028568     0.000000941    -0.000007883
H         3.179875351    -0.561272359     0.867241520     0.000006895     0.000013666     0.000001963
H         2.295517124    -0.683734990     0.362203781     0.000000029     0.000003628     0.000018144
4
# Step: 1 Box:    8.0000    8.0000    8.0000 
H         2.181981161     0.255682704     0.722324864     0.000016103     0.000007545    -0.000002058
H         3.088502457     0.420597335     1.051430320     0.000016276     0.000010503    -0.000001438
H         3.269709158    -0.529046465     0.829160136     0.000002670     0.000001641    -0.000008571
H         2.332369500    -0.634380055     0.596320850     0.000005148    -0.000002755     0.000022199
4
# Step: 2 Box:    8.0000    8.0000    8.0000 
H         2.282855047     0.428096994     0.663695642     0.000009103     0.000013551    -0.000009943
H         3.240800420     0.439378882     1.052559139     0.000015771     0.000006629     0.000007308
H         3.380665355    -0.485946188     0.741288306     0.000000064     0.000001358    -0.000012977
H         2.360722358    -0.703335139     0.840625374     0.000008452    -0.000007472     0.000024028
4
# Step: 3 Box:    8.0000    8.0000    8.0000 
H         2.445253073     0.611695350     0.581023652     0.000014880     0.000016330    -0.000008713
H         3.267101840     0.421041729     1.076382287     0.000006645    -0.000004473    -0.000000029
H         3.350588013    -0.462724399     0.629125501    -0.000012790     0.000009150    -0.000003727
H         2.526672720    -0.755084993     1.093451694     0.000018651    -0.000009470     0.000019372
