4
# Step: 0 Box:    8.0000    8.0000    8.0000 
H         1.846645479     0.178150863     0.682962746    -0.000022401     0.000020582    -0.000000811
H         2.639728290     0.255371804     1.241934356     0.000010587     0.000001265    -0.000002544
H         3.027142966    -0.613408253     0.829889306     0.000011744     0.000012177    -0.000014389
H         2.318691826    -0.745531724     0.182208223     0.000009937    -0.000000967    -0.000002631
4
# Step: 1 Box:    8.0000    8.0000    8.0000 
H         1.779158535     0.251089940     0.610056495     0.000016551    -0.000002623    -0.000005367
H         2.685915430     0.308910808     1.256954954    -0.000000031     0.000001142    -0.000000669
H         3.156605739    -0.491822723     0.661268093    -0.000003696     0.000024187    -0.000015932
H         2.308999265    -0.663694021     0.205377241    -0.000004210     0.000006151     0.000004181
4
# Step: 2 Box:    8.0000    8.0000    8.0000 
H         1.993574943     0.276747043     0.574284120     0.000006890     0.000008775    -0.000009722
H         2.654058537     0.228451307     1.198719893     0.000004482    -0.000004746     0.000008043
H         3.117331313    -0.177425266     0.535016851    -0.000004615     0.000023136    -0.000015985
H         2.247946848    -0.647788373     0.255828407     0.000000163    -0.000003984     0.000003377
4
# Step: 3 Box:    8.0000    8.0000    8.0000 
H         1.841648953     0.514000086     0.595299855    -0.000013064     0.000023558     0.000007731
H         2.700660370     0.229033329     1.179311737     0.000000552     0.000010017     0.000003180
H         3.150189569    -0.121940149     0.414750926    -0.000003889    -0.000005960    -0.000014887
H         2.388916291    -0.711603985     0.233029404     0.000022245    -0.000008037    -0.000008091
4
# Step: 4 Box:    8.0000    8.0000    8.0000 
H         1.878692689     0.676935565     0.674631391     0.000010217     0.000009586     0.000001120
H         2.614263467     0.305943097     1.182205142     0.000001451     0.000000281    -0.000007369
H         3.138300397    -0.033509146     0.257551725    -0.000012772     0.000020890    -0.000000408
H         2.508000427    -0.846095271     0.188562436     0.000006116    -0.000013967    -0.000003692
